Version 4.1
SHEET 1 9036 1076
WIRE 4688 -1472 4688 -1616
WIRE -3952 -1440 -3952 -1584
WIRE 480 -1360 480 -1504
WIRE 4688 -1328 4592 -1328
WIRE 4768 -1328 4688 -1328
WIRE 4928 -1328 4768 -1328
WIRE 5344 -1328 4928 -1328
WIRE 6128 -1328 5344 -1328
WIRE 6208 -1312 5968 -1312
WIRE 6288 -1312 6208 -1312
WIRE -3952 -1296 -4048 -1296
WIRE -3872 -1296 -3952 -1296
WIRE -3712 -1296 -3872 -1296
WIRE -3296 -1296 -3712 -1296
WIRE -2512 -1296 -3296 -1296
WIRE 6288 -1296 6288 -1312
WIRE -2432 -1280 -2672 -1280
WIRE -2352 -1280 -2432 -1280
WIRE 5968 -1280 5968 -1312
WIRE -2352 -1264 -2352 -1280
WIRE 4688 -1264 4592 -1264
WIRE 4768 -1264 4688 -1264
WIRE 5936 -1264 5088 -1264
WIRE -2672 -1248 -2672 -1280
WIRE 4688 -1248 4688 -1264
WIRE 5152 -1248 4928 -1248
WIRE 6064 -1248 6000 -1248
WIRE -3952 -1232 -4048 -1232
WIRE -3872 -1232 -3952 -1232
WIRE -2704 -1232 -3552 -1232
WIRE 5520 -1232 5424 -1232
WIRE 5600 -1232 5520 -1232
WIRE 5728 -1232 5664 -1232
WIRE 5776 -1232 5728 -1232
WIRE 5936 -1232 5856 -1232
WIRE -3952 -1216 -3952 -1232
WIRE -3488 -1216 -3712 -1216
WIRE -2576 -1216 -2640 -1216
WIRE 480 -1216 384 -1216
WIRE 560 -1216 480 -1216
WIRE 720 -1216 560 -1216
WIRE 1136 -1216 720 -1216
WIRE 1920 -1216 1136 -1216
WIRE -3120 -1200 -3216 -1200
WIRE -3040 -1200 -3120 -1200
WIRE -2912 -1200 -2976 -1200
WIRE -2864 -1200 -2912 -1200
WIRE -2704 -1200 -2784 -1200
WIRE -960 -1200 -1488 -1200
WIRE -800 -1200 -960 -1200
WIRE 2000 -1200 1760 -1200
WIRE 2080 -1200 2000 -1200
WIRE -960 -1184 -960 -1200
WIRE -800 -1184 -800 -1200
WIRE 2080 -1184 2080 -1200
WIRE 1760 -1168 1760 -1200
WIRE 5056 -1168 4928 -1168
WIRE 5968 -1168 5968 -1216
WIRE 6128 -1168 6128 -1328
WIRE 6128 -1168 5968 -1168
WIRE 480 -1152 384 -1152
WIRE 560 -1152 480 -1152
WIRE 1728 -1152 880 -1152
WIRE -3584 -1136 -3712 -1136
WIRE -2672 -1136 -2672 -1184
WIRE -2512 -1136 -2512 -1296
WIRE -2512 -1136 -2672 -1136
WIRE 480 -1136 480 -1152
WIRE 944 -1136 720 -1136
WIRE 1856 -1136 1792 -1136
WIRE -1488 -1120 -1488 -1200
WIRE -1488 -1120 -1536 -1120
WIRE -1424 -1120 -1488 -1120
WIRE -1024 -1120 -1200 -1120
WIRE 1312 -1120 1216 -1120
WIRE 1392 -1120 1312 -1120
WIRE 1520 -1120 1456 -1120
WIRE 1568 -1120 1520 -1120
WIRE 1728 -1120 1648 -1120
WIRE 6064 -1120 6064 -1248
WIRE 6064 -1120 5696 -1120
WIRE 6128 -1104 6128 -1168
WIRE 6128 -1104 5776 -1104
WIRE -2576 -1088 -2576 -1216
WIRE -2576 -1088 -2944 -1088
WIRE 5120 -1088 4928 -1088
WIRE 5520 -1088 5520 -1152
WIRE -2512 -1072 -2512 -1136
WIRE -2512 -1072 -2864 -1072
WIRE 6208 -1072 6208 -1312
WIRE 6208 -1072 5952 -1072
WIRE -3520 -1056 -3712 -1056
WIRE -3120 -1056 -3120 -1120
WIRE -1024 -1056 -1024 -1120
WIRE -960 -1056 -960 -1104
WIRE -960 -1056 -1024 -1056
WIRE 848 -1056 720 -1056
WIRE 1760 -1056 1760 -1104
WIRE 1920 -1056 1920 -1216
WIRE 1920 -1056 1760 -1056
WIRE -2432 -1040 -2432 -1280
WIRE -2432 -1040 -2688 -1040
WIRE 5952 -1040 5952 -1072
WIRE -1424 -1024 -1856 -1024
WIRE -800 -1024 -800 -1104
WIRE -800 -1024 -1200 -1024
WIRE 5696 -1024 5696 -1120
WIRE 5920 -1024 5776 -1024
WIRE -2688 -1008 -2688 -1040
WIRE 1856 -1008 1856 -1136
WIRE 1856 -1008 1488 -1008
WIRE 5088 -1008 5088 -1264
WIRE 5088 -1008 4928 -1008
WIRE 6064 -1008 5984 -1008
WIRE -2944 -992 -2944 -1088
WIRE -2720 -992 -2864 -992
WIRE 1920 -992 1920 -1056
WIRE 1920 -992 1568 -992
WIRE 5120 -992 5120 -1088
WIRE 5920 -992 5120 -992
WIRE -3552 -976 -3552 -1232
WIRE -3552 -976 -3712 -976
WIRE -2576 -976 -2656 -976
WIRE 912 -976 720 -976
WIRE 1312 -976 1312 -1040
WIRE -3520 -960 -3520 -1056
WIRE -2720 -960 -3520 -960
WIRE -1856 -960 -1856 -1024
WIRE 2000 -960 2000 -1200
WIRE 2000 -960 1744 -960
WIRE 5776 -944 5776 -1024
WIRE 5952 -944 5952 -976
WIRE 6128 -944 6128 -1104
WIRE 6128 -944 5952 -944
WIRE -1424 -928 -1728 -928
WIRE -1136 -928 -1200 -928
WIRE 1744 -928 1744 -960
WIRE -2864 -912 -2864 -992
WIRE -2688 -912 -2688 -944
WIRE -2512 -912 -2512 -1072
WIRE -2512 -912 -2688 -912
WIRE -1136 -912 -1136 -928
WIRE 1488 -912 1488 -1008
WIRE 1712 -912 1568 -912
WIRE 5152 -912 5152 -1248
WIRE 5344 -912 5344 -1328
WIRE 880 -896 880 -1152
WIRE 880 -896 720 -896
WIRE 1856 -896 1776 -896
WIRE -3488 -880 -3488 -1216
WIRE -3296 -880 -3296 -1296
WIRE 912 -880 912 -976
WIRE 1712 -880 912 -880
WIRE -1856 -864 -1856 -880
WIRE -1728 -864 -1728 -928
WIRE 6064 -848 6064 -1008
WIRE 6064 -848 5392 -848
WIRE 1568 -832 1568 -912
WIRE 1744 -832 1744 -864
WIRE 1920 -832 1920 -992
WIRE 1920 -832 1744 -832
WIRE -2576 -816 -2576 -976
WIRE -2576 -816 -3248 -816
WIRE 5152 -816 5152 -832
WIRE 5200 -816 5152 -816
WIRE 5344 -816 5344 -832
WIRE 5344 -816 5280 -816
WIRE 6064 -816 5344 -816
WIRE 944 -800 944 -1136
WIRE 1136 -800 1136 -1216
WIRE -3488 -784 -3488 -800
WIRE -3440 -784 -3488 -784
WIRE -3296 -784 -3296 -800
WIRE -3296 -784 -3360 -784
WIRE -2576 -784 -3296 -784
WIRE 6208 -784 6208 -1072
WIRE 6208 -784 5952 -784
WIRE -1728 -768 -1728 -784
WIRE 5152 -768 5152 -816
WIRE 5920 -768 5152 -768
WIRE -2432 -752 -2432 -1040
WIRE -2432 -752 -2688 -752
WIRE 6064 -752 6064 -816
WIRE 6064 -752 5984 -752
WIRE 6560 -752 6064 -752
WIRE -3488 -736 -3488 -784
WIRE -2720 -736 -3488 -736
WIRE -1120 -736 -1200 -736
WIRE 1856 -736 1856 -896
WIRE 1856 -736 1184 -736
WIRE 5392 -736 5392 -848
WIRE 5440 -736 5392 -736
WIRE 5568 -736 5520 -736
WIRE 5680 -736 5568 -736
WIRE 5808 -736 5680 -736
WIRE 5920 -736 5808 -736
WIRE -2576 -720 -2576 -784
WIRE -2576 -720 -2656 -720
WIRE -2080 -720 -2576 -720
WIRE -3248 -704 -3248 -816
WIRE -3200 -704 -3248 -704
WIRE -3072 -704 -3120 -704
WIRE -2960 -704 -3072 -704
WIRE -2832 -704 -2960 -704
WIRE -2720 -704 -2832 -704
WIRE 944 -704 944 -720
WIRE 992 -704 944 -704
WIRE 1136 -704 1136 -720
WIRE 1136 -704 1072 -704
WIRE 1856 -704 1136 -704
WIRE 5952 -688 5952 -720
WIRE 6128 -688 6128 -944
WIRE 6128 -688 5952 -688
WIRE -1120 -672 -1120 -736
WIRE 2000 -672 2000 -960
WIRE 2000 -672 1744 -672
WIRE 6416 -672 6336 -672
WIRE 6560 -672 6560 -752
WIRE 6560 -672 6496 -672
WIRE -2688 -656 -2688 -688
WIRE -2512 -656 -2512 -912
WIRE -2512 -656 -2688 -656
WIRE 944 -656 944 -704
WIRE 1712 -656 944 -656
WIRE -2224 -640 -2304 -640
WIRE -2080 -640 -2080 -720
WIRE -2080 -640 -2144 -640
WIRE 1856 -640 1856 -704
WIRE 1856 -640 1776 -640
WIRE 2352 -640 1856 -640
WIRE 1184 -624 1184 -736
WIRE 1232 -624 1184 -624
WIRE 1360 -624 1312 -624
WIRE 1472 -624 1360 -624
WIRE 1600 -624 1472 -624
WIRE 1712 -624 1600 -624
WIRE 5808 -624 5808 -736
WIRE 6336 -624 6336 -672
WIRE 6336 -624 5808 -624
WIRE -2832 -592 -2832 -704
WIRE -2304 -592 -2304 -640
WIRE -2304 -592 -2832 -592
WIRE 6064 -592 6064 -752
WIRE 6064 -592 5776 -592
WIRE 6336 -592 6336 -624
WIRE 6352 -592 6336 -592
WIRE 6480 -592 6432 -592
WIRE 6560 -592 6560 -672
WIRE 6560 -592 6544 -592
WIRE -1120 -576 -1120 -592
WIRE 1744 -576 1744 -608
WIRE 1920 -576 1920 -832
WIRE 1920 -576 1744 -576
WIRE 6208 -576 6208 -784
WIRE 6208 -576 5952 -576
WIRE -2576 -560 -2576 -720
WIRE -2576 -560 -2864 -560
WIRE -2304 -560 -2304 -592
WIRE -2288 -560 -2304 -560
WIRE -2160 -560 -2208 -560
WIRE -2080 -560 -2080 -640
WIRE -2080 -560 -2096 -560
WIRE 2208 -560 2128 -560
WIRE 2352 -560 2352 -640
WIRE 2352 -560 2288 -560
WIRE -2432 -544 -2432 -752
WIRE -2432 -544 -2688 -544
WIRE 5952 -544 5952 -576
WIRE 5776 -528 5776 -592
WIRE 5920 -528 5776 -528
WIRE -2688 -512 -2688 -544
WIRE 1600 -512 1600 -624
WIRE 2128 -512 2128 -560
WIRE 2128 -512 1600 -512
WIRE 6208 -512 5984 -512
WIRE -2864 -496 -2864 -560
WIRE -2720 -496 -2864 -496
WIRE 5056 -496 5056 -1168
WIRE 5616 -496 5056 -496
WIRE 5920 -496 5616 -496
WIRE -2432 -480 -2656 -480
WIRE 1856 -480 1856 -640
WIRE 1856 -480 1568 -480
WIRE 2128 -480 2128 -512
WIRE 2144 -480 2128 -480
WIRE 2272 -480 2224 -480
WIRE 2352 -480 2352 -560
WIRE 2352 -480 2336 -480
WIRE 6128 -480 6128 -688
WIRE 6128 -480 5952 -480
WIRE -3584 -464 -3584 -1136
WIRE -3024 -464 -3584 -464
WIRE -2720 -464 -3024 -464
WIRE 2000 -464 2000 -672
WIRE 2000 -464 1744 -464
WIRE 5616 -464 5616 -496
WIRE -2512 -448 -2512 -656
WIRE -2512 -448 -2688 -448
WIRE -3024 -432 -3024 -464
WIRE 1744 -432 1744 -464
WIRE 1568 -416 1568 -480
WIRE 1712 -416 1568 -416
WIRE 2000 -400 1776 -400
WIRE 848 -384 848 -1056
WIRE 1408 -384 848 -384
WIRE 1712 -384 1408 -384
WIRE 1920 -368 1920 -576
WIRE 1920 -368 1744 -368
WIRE 1408 -352 1408 -384
WIRE 7440 -256 7104 -256
WIRE 7840 -256 7440 -256
WIRE -1200 -224 -1536 -224
WIRE -800 -224 -1200 -224
WIRE 7440 -208 7440 -256
WIRE -1200 -176 -1200 -224
WIRE 7840 -176 7840 -256
WIRE -1872 -160 -3440 -160
WIRE -800 -144 -800 -224
WIRE 3232 -144 2896 -144
WIRE 3632 -144 3232 -144
WIRE 7696 -128 7440 -128
WIRE 8304 -128 7984 -128
WIRE -944 -96 -1200 -96
WIRE -336 -96 -656 -96
WIRE 3232 -96 3232 -144
WIRE 5200 -80 5200 -192
WIRE 3632 -64 3632 -144
WIRE -3440 -48 -3440 -160
WIRE 6624 -48 6256 -48
WIRE 6032 -32 5280 -32
WIRE 8544 -32 7984 -32
WIRE -2016 -16 -2384 -16
WIRE 3488 -16 3232 -16
WIRE 4096 -16 3776 -16
WIRE 6528 -16 6256 -16
WIRE -2608 0 -3360 0
WIRE -96 0 -656 0
WIRE 5040 0 4960 0
WIRE 5200 0 5120 0
WIRE 6032 0 5200 0
WIRE -2112 16 -2384 16
WIRE 6448 16 6256 16
WIRE -3440 32 -3680 32
WIRE -2608 32 -3440 32
WIRE 992 32 992 -80
WIRE 5280 32 5280 -32
WIRE 6032 32 5376 32
WIRE -2192 48 -2384 48
WIRE 6768 48 6256 48
WIRE 6896 48 6768 48
WIRE -3360 64 -3360 0
WIRE -2608 64 -3264 64
WIRE 2416 64 2048 64
WIRE 6032 64 5424 64
WIRE 7696 64 7264 64
WIRE 8064 64 7984 64
WIRE -1872 80 -1872 -160
WIRE -1872 80 -2384 80
WIRE -1744 80 -1872 80
WIRE 1824 80 1072 80
WIRE 4336 80 3776 80
WIRE 6352 80 6256 80
WIRE 6448 80 6448 16
WIRE 6528 80 6528 -16
WIRE 8064 80 8064 64
WIRE -2608 96 -3216 96
WIRE -944 96 -1376 96
WIRE -576 96 -656 96
WIRE 2320 96 2048 96
WIRE 6032 96 5776 96
WIRE -2288 112 -2384 112
WIRE -2192 112 -2192 48
WIRE -2112 112 -2112 16
WIRE -576 112 -576 96
WIRE 832 112 752 112
WIRE 992 112 912 112
WIRE 1824 112 992 112
WIRE 5376 112 5376 32
WIRE 6352 112 6352 80
WIRE 6352 112 6256 112
WIRE -2608 128 -2864 128
WIRE 2240 128 2048 128
WIRE 6032 128 5488 128
WIRE 6624 128 6624 -48
WIRE 6768 128 6768 48
WIRE 6896 128 6896 48
WIRE 7264 128 7264 64
WIRE -3264 144 -3264 64
WIRE -2288 144 -2288 112
WIRE -2288 144 -2384 144
WIRE 1072 144 1072 80
WIRE 1824 144 1168 144
WIRE 6352 144 6352 112
WIRE 6352 144 6256 144
WIRE -2608 160 -3152 160
WIRE -2016 160 -2016 -16
WIRE -1872 160 -1872 80
WIRE -1744 160 -1744 80
WIRE -1376 160 -1376 96
WIRE 2560 160 2048 160
WIRE 2688 160 2560 160
WIRE 6032 160 5568 160
WIRE 6496 160 6448 160
WIRE 6528 160 6496 160
WIRE 7696 160 7408 160
WIRE 8064 160 8064 144
WIRE 8064 160 7984 160
WIRE 8400 160 8064 160
WIRE 8544 160 8544 -32
WIRE 8544 160 8480 160
WIRE 8640 160 8544 160
WIRE 8736 160 8640 160
WIRE 8864 160 8736 160
WIRE -2288 176 -2288 144
WIRE -2288 176 -2384 176
WIRE 1824 176 1216 176
WIRE 3488 176 3056 176
WIRE 3856 176 3776 176
WIRE 6352 176 6352 144
WIRE 6352 176 6256 176
WIRE 6496 176 6496 160
WIRE -2608 192 -3072 192
WIRE -2144 192 -2192 192
WIRE -2112 192 -2144 192
WIRE -944 192 -1232 192
WIRE -576 192 -576 176
WIRE -576 192 -656 192
WIRE -240 192 -576 192
WIRE -96 192 -96 0
WIRE -96 192 -160 192
WIRE 0 192 -96 192
WIRE 96 192 0 192
WIRE 224 192 96 192
WIRE 2144 192 2048 192
WIRE 2240 192 2240 128
WIRE 2320 192 2320 96
WIRE 3856 192 3856 176
WIRE 6032 192 5648 192
WIRE -2288 208 -2288 176
WIRE -2288 208 -2384 208
WIRE -2144 208 -2144 192
WIRE 1824 208 1568 208
WIRE 6352 208 6352 176
WIRE 6352 208 6256 208
WIRE 8640 208 8640 160
WIRE 8736 208 8736 160
WIRE -2608 224 -2992 224
WIRE 1168 224 1168 144
WIRE 2144 224 2144 192
WIRE 2144 224 2048 224
WIRE 6032 224 5872 224
WIRE -2288 240 -2288 208
WIRE -2288 240 -2384 240
WIRE 0 240 0 192
WIRE 96 240 96 192
WIRE 1824 240 1280 240
WIRE 2416 240 2416 64
WIRE 2560 240 2560 160
WIRE 2688 240 2688 160
WIRE 3056 240 3056 176
WIRE 5776 240 5776 96
WIRE 5872 240 5872 224
WIRE 6352 240 6352 208
WIRE 6352 240 6256 240
WIRE 6896 240 6896 192
WIRE 7264 240 7264 208
WIRE 8336 240 8256 240
WIRE 8544 240 8544 160
WIRE 8544 240 8336 240
WIRE -2608 256 -2768 256
WIRE 2144 256 2144 224
WIRE 2144 256 2048 256
WIRE 5424 256 5424 64
WIRE 5488 256 5488 128
WIRE 5568 256 5568 160
WIRE 5648 256 5648 192
WIRE 6624 256 6624 208
WIRE 7696 256 7520 256
WIRE 8128 256 7984 256
WIRE 8256 256 8256 240
WIRE 8336 256 8336 240
WIRE -2864 272 -2864 128
WIRE -2768 272 -2768 256
WIRE -2288 272 -2288 240
WIRE -2288 272 -2384 272
WIRE -1744 272 -1744 224
WIRE -1376 272 -1376 240
WIRE -304 272 -384 272
WIRE -96 272 -96 192
WIRE -96 272 -304 272
WIRE 1824 272 1360 272
WIRE 2288 272 2240 272
WIRE 2320 272 2288 272
WIRE 3488 272 3200 272
WIRE 3856 272 3856 256
WIRE 3856 272 3776 272
WIRE 4192 272 3856 272
WIRE 4336 272 4336 80
WIRE 4336 272 4272 272
WIRE 4432 272 4336 272
WIRE 4528 272 4432 272
WIRE 4656 272 4528 272
WIRE -3216 288 -3216 96
WIRE -3152 288 -3152 160
WIRE -3072 288 -3072 192
WIRE -2992 288 -2992 224
WIRE -2016 288 -2016 240
WIRE -944 288 -1120 288
WIRE -512 288 -656 288
WIRE -384 288 -384 272
WIRE -304 288 -304 272
WIRE 2144 288 2144 256
WIRE 2144 288 2048 288
WIRE 2288 288 2288 272
WIRE 1824 304 1440 304
WIRE 7408 304 7408 160
WIRE 7520 304 7520 256
WIRE 2144 320 2144 288
WIRE 2144 320 2048 320
WIRE 4432 320 4432 272
WIRE 4528 320 4528 272
WIRE 5824 320 5776 320
WIRE 5872 320 5824 320
WIRE 8640 320 8640 272
WIRE 8688 320 8640 320
WIRE 8736 320 8736 272
WIRE 8736 320 8688 320
WIRE -1232 336 -1232 192
WIRE -1120 336 -1120 288
WIRE 1824 336 1664 336
WIRE 5488 336 5424 336
WIRE 5568 336 5488 336
WIRE 5648 336 5568 336
WIRE 5824 336 5824 320
WIRE 8128 336 8128 256
WIRE 8256 336 8256 320
WIRE 8256 336 8128 336
WIRE 8336 336 8256 336
WIRE 8688 336 8688 320
WIRE -2816 352 -2864 352
WIRE -2768 352 -2816 352
WIRE 0 352 0 304
WIRE 48 352 0 352
WIRE 96 352 96 304
WIRE 96 352 48 352
WIRE 1568 352 1568 208
WIRE 1664 352 1664 336
WIRE 2144 352 2144 320
WIRE 2144 352 2048 352
WIRE 2688 352 2688 304
WIRE 3056 352 3056 320
WIRE 4128 352 4048 352
WIRE 4336 352 4336 272
WIRE 4336 352 4128 352
WIRE 5568 352 5568 336
WIRE -3152 368 -3216 368
WIRE -3072 368 -3152 368
WIRE -2992 368 -3072 368
WIRE -2816 368 -2816 352
WIRE -512 368 -512 288
WIRE -384 368 -384 352
WIRE -384 368 -512 368
WIRE -304 368 -384 368
WIRE 48 368 48 352
WIRE 1216 368 1216 176
WIRE 1280 368 1280 240
WIRE 1360 368 1360 272
WIRE 1440 368 1440 304
WIRE 2416 368 2416 320
WIRE 3488 368 3312 368
WIRE 3920 368 3776 368
WIRE 4048 368 4048 352
WIRE 4128 368 4128 352
WIRE 7776 368 7776 304
WIRE 7840 368 7776 368
WIRE 7904 368 7904 304
WIRE 7904 368 7840 368
WIRE -3072 384 -3072 368
WIRE -864 400 -864 336
WIRE -800 400 -864 400
WIRE -736 400 -736 336
WIRE -736 400 -800 400
WIRE 7840 400 7840 368
WIRE 3200 416 3200 272
WIRE 3312 416 3312 368
WIRE -800 432 -800 400
WIRE 1616 432 1568 432
WIRE 1664 432 1616 432
WIRE 4432 432 4432 384
WIRE 4480 432 4432 432
WIRE 4528 432 4528 384
WIRE 4528 432 4480 432
WIRE 7408 432 7408 368
WIRE 7456 432 7408 432
WIRE 7520 432 7520 384
WIRE 7520 432 7456 432
WIRE 8336 432 8336 416
WIRE 1280 448 1216 448
WIRE 1360 448 1280 448
WIRE 1440 448 1360 448
WIRE 1616 448 1616 432
WIRE 3920 448 3920 368
WIRE 4048 448 4048 432
WIRE 4048 448 3920 448
WIRE 4128 448 4048 448
WIRE 4480 448 4480 432
WIRE 6352 448 6352 240
WIRE 7104 448 7104 -256
WIRE 7104 448 6352 448
WIRE -1232 464 -1232 400
WIRE -1184 464 -1232 464
WIRE -1120 464 -1120 416
WIRE -1120 464 -1184 464
WIRE -304 464 -304 448
WIRE 1360 464 1360 448
WIRE 7456 464 7456 432
WIRE -2288 480 -2288 272
WIRE -1536 480 -1536 -224
WIRE -1536 480 -2288 480
WIRE 3568 480 3568 416
WIRE 3632 480 3568 480
WIRE 3696 480 3696 416
WIRE 3696 480 3632 480
WIRE -1184 496 -1184 464
WIRE 3632 512 3632 480
WIRE 3200 544 3200 480
WIRE 3248 544 3200 544
WIRE 3312 544 3312 496
WIRE 3312 544 3248 544
WIRE 4128 544 4128 528
WIRE 2144 560 2144 352
WIRE 2896 560 2896 -144
WIRE 2896 560 2144 560
WIRE 3248 576 3248 544
FLAG -3360 144 0
FLAG -3440 112 0
FLAG -2816 368 0
FLAG -2016 288 0
FLAG -3072 384 0
FLAG -2144 208 0
FLAG -3264 144 0
FLAG -800 432 0
FLAG -1184 496 0
FLAG -1376 272 0
FLAG -1200 -16 0
FLAG -336 -32 0
FLAG -944 0 sync_phase1
FLAG -1744 272 0
FLAG -304 464 0
FLAG 48 368 0
FLAG 224 192 +3.3V_VOUT
FLAG -1424 -832 sync_phase1
FLAG -1424 -736 sync_phase2
FLAG -1200 -832 sync_phase3
FLAG -1120 -576 0
FLAG -1728 -768 0
FLAG -1856 -864 0
FLAG -1536 -1120 +3.3V_VOUT
FLAG -1136 -912 0
FLAG -3952 -1584 +3.3V_VOUT
FLAG -3680 32 !WD_EN_OBC
FLAG -3712 -896 0
FLAG -2912 -1120 0
FLAG -3120 -1056 0
FLAG -2864 -848 0
FLAG -3072 -640 0
FLAG -2960 -640 0
FLAG -3024 -368 0
FLAG -2432 -480 !WD_EN_OBC
FLAG -3952 -1216 0
FLAG -2352 -1264 0
FLAG -3216 -1200 WD_IN
FLAG 224 272 0
FLAG 1072 224 0
FLAG 992 192 0
FLAG 1616 448 0
FLAG 2416 368 0
FLAG 1360 464 0
FLAG 2288 288 0
FLAG 1168 224 0
FLAG 3632 512 0
FLAG 3248 576 0
FLAG 3056 352 0
FLAG 3232 64 0
FLAG 4096 48 0
FLAG 3488 80 sync_phase2
FLAG 2688 352 0
FLAG 4128 544 0
FLAG 4480 448 0
FLAG 4656 272 +20V_Jetson
FLAG 752 112 !WD_EN_JETSON
FLAG 720 -816 0
FLAG 1520 -1040 0
FLAG 1312 -976 0
FLAG 1568 -768 0
FLAG 1360 -560 0
FLAG 1472 -560 0
FLAG 1408 -288 0
FLAG 480 -1136 0
FLAG 2080 -1184 0
FLAG 1216 -1120 WD_IN
FLAG 4656 352 0
FLAG 992 -80 LSIO_GPIO_IO19
FLAG 2000 -400 !WD_EN_JETSON
FLAG -3408 -1408 0
FLAG -3408 -1488 +V_Batt
FLAG -3232 -1408 0
FLAG 480 -1504 +20V_Jetson
FLAG -3232 -1488 LSIO_GPIO_IO19
FLAG -3056 -1408 0
FLAG -3056 -1488 WD_IN
FLAG -1872 160 +V_Batt
FLAG 2560 240 +V_Batt
FLAG 5280 112 0
FLAG 5200 80 0
FLAG 5824 336 0
FLAG 6624 256 0
FLAG 5568 352 0
FLAG 6496 176 0
FLAG 5376 112 0
FLAG 7840 400 0
FLAG 7456 464 0
FLAG 7264 240 0
FLAG 7440 -48 0
FLAG 8304 -64 0
FLAG 7696 -32 sync_phase2
FLAG 6896 240 0
FLAG 8336 432 0
FLAG 8688 336 0
FLAG 8864 160 +5V_Perif
FLAG 4928 -928 0
FLAG 5728 -1152 0
FLAG 5520 -1088 0
FLAG 5776 -880 0
FLAG 5568 -672 0
FLAG 5680 -672 0
FLAG 5616 -400 0
FLAG 4688 -1248 0
FLAG 6288 -1296 0
FLAG 5424 -1232 WD_IN
FLAG 8864 240 0
FLAG 5200 -192 LSIO_GPIO_IO19
FLAG 6208 -512 !WD_EN_PERIF
FLAG 4688 -1616 +20V_Jetson
FLAG 6768 128 +V_Batt
FLAG 4960 0 !WD_EN_PERIF
SYMBOL res -3456 16 R0
SYMATTR InstName R17
SYMATTR Value 10k
SYMBOL res -3456 -64 R0
SYMATTR InstName R16
SYMATTR Value 56.2k
SYMBOL res -3376 48 R0
SYMATTR InstName R21
SYMATTR Value 15k
SYMBOL res -2784 256 R0
SYMATTR InstName R23
SYMATTR Value 15k
SYMBOL res -2032 144 R0
SYMATTR InstName R18
SYMATTR Value 1k
SYMBOL res -3008 272 R0
SYMATTR InstName R203
SYMATTR Value 100k
SYMBOL res -3088 272 R0
SYMATTR InstName R201
SYMATTR Value 100k
SYMBOL res -3168 272 R0
SYMATTR InstName R200
SYMATTR Value 100k
SYMBOL res -2208 96 R0
SYMATTR InstName R204
SYMATTR Value 100k
SYMBOL res -2128 96 R0
SYMATTR InstName R205
SYMATTR Value 100k
SYMBOL res -3232 272 R0
SYMATTR InstName R100
SYMATTR Value 100k
SYMBOL res -2880 256 R0
SYMATTR InstName R19
SYMATTR Value 15k
SYMBOL PowerProducts\\LT8612 -800 96 R0
SYMATTR InstName U3
SYMBOL res -1216 -112 R0
SYMATTR InstName R27
SYMATTR Value 2k
SYMBOL res -1216 -192 R0
SYMATTR InstName R26
SYMATTR Value 47k
SYMBOL res -1136 320 R0
SYMATTR InstName R28
SYMATTR Value 110k
SYMBOL cap -1248 336 R0
SYMATTR InstName C1
SYMATTR Value 0.47Ą
SYMBOL res -1392 144 R0
SYMATTR InstName R212
SYMATTR Value 100k
SYMBOL cap -352 -96 R0
SYMATTR InstName C2
SYMATTR Value 100n
SYMBOL cap -592 112 R0
SYMATTR InstName C24
SYMATTR Value 100n
SYMBOL res -320 272 R0
SYMATTR InstName R31
SYMATTR Value 240k
SYMBOL res -320 352 R0
SYMATTR InstName R32
SYMATTR Value 100k
SYMBOL cap -1760 160 R0
SYMATTR InstName C3
SYMATTR Value 220n
SYMBOL cap -400 288 R0
SYMATTR InstName C25
SYMATTR Value 10p
SYMBOL ind -256 208 R270
WINDOW 0 32 56 VTop 2
WINDOW 3 5 56 VBottom 2
SYMATTR InstName L2
SYMATTR Value 6.1Ą
SYMBOL cap -16 240 R0
SYMATTR InstName C26
SYMATTR Value 47Ą
SYMBOL cap 80 240 R0
SYMATTR InstName C27
SYMATTR Value 47Ą
SYMBOL SpecialFunctions\\LTC6902 -1312 -928 R0
SYMATTR InstName U1
SYMBOL res -1136 -688 R0
SYMATTR InstName R101
SYMATTR Value 100k
SYMBOL res -1744 -880 R0
SYMATTR InstName R102
SYMATTR Value 100k
SYMBOL res -1872 -976 R0
SYMATTR InstName R213
SYMATTR Value 100k
SYMBOL res -976 -1200 R0
SYMATTR InstName R25
SYMATTR Value 17k
SYMBOL res -816 -1200 R0
SYMATTR InstName R24
SYMATTR Value 14k
SYMBOL cap -4064 -1296 R0
WINDOW 0 27 16 Left 2
SYMATTR InstName C11
SYMATTR Value 100Ą
SYMBOL cap -3968 -1296 R0
WINDOW 0 37 14 Left 2
SYMATTR InstName C12
SYMATTR Value 100Ą
SYMBOL cap -3888 -1296 R0
WINDOW 0 25 11 Left 2
SYMATTR InstName C44
SYMATTR Value 100Ą
SYMBOL res -3968 -1392 R0
SYMATTR InstName R49
SYMATTR Value 10
SYMBOL diode -3968 -1440 R0
SYMATTR InstName D4
SYMATTR Value 1N4148
SYMBOL res -3728 -1312 R0
SYMATTR InstName R50
SYMATTR Value 10k
SYMBOL res -3728 -1232 R0
SYMATTR InstName R51
SYMATTR Value 10k
SYMBOL res -3728 -1152 R0
SYMATTR InstName R52
SYMATTR Value 10k
SYMBOL res -3728 -1072 R0
SYMATTR InstName R53
SYMATTR Value 10k
SYMBOL res -3728 -992 R0
SYMATTR InstName R54
SYMATTR Value 3k
SYMBOL res -2768 -1216 R90
WINDOW 0 0 56 VBottom 2
WINDOW 3 32 56 VTop 2
SYMATTR InstName R29
SYMATTR Value 10k
SYMBOL res -2896 -1104 R180
WINDOW 0 36 76 Left 2
WINDOW 3 36 40 Left 2
SYMATTR InstName R30
SYMATTR Value 10k
SYMBOL cap -2976 -1216 R90
WINDOW 0 0 32 VBottom 2
WINDOW 3 32 32 VTop 2
SYMATTR InstName C45
SYMATTR Value 10Ą
SYMBOL res -3136 -1216 R0
SYMATTR InstName R33
SYMATTR Value 3k
SYMBOL cap -2880 -912 R0
SYMATTR InstName C46
SYMATTR Value 10Ą
SYMBOL res -2848 -1008 R90
WINDOW 0 48 98 VBottom 2
WINDOW 3 22 49 VTop 2
SYMATTR InstName R34
SYMATTR Value 1k
SYMBOL res -3344 -800 R90
WINDOW 0 0 56 VBottom 2
WINDOW 3 32 56 VTop 2
SYMATTR InstName R35
SYMATTR Value 100k
SYMBOL res -3280 -784 R180
WINDOW 0 36 76 Left 2
WINDOW 3 36 40 Left 2
SYMATTR InstName R36
SYMATTR Value 100k
SYMBOL res -3472 -784 R180
WINDOW 0 36 76 Left 2
WINDOW 3 36 40 Left 2
SYMATTR InstName R37
SYMATTR Value 100k
SYMBOL cap -2976 -704 R0
SYMATTR InstName C48
SYMATTR Value 10Ą
SYMBOL cap -3088 -704 R0
SYMATTR InstName C47
SYMATTR Value 10Ą
SYMBOL res -3104 -720 R90
WINDOW 0 0 56 VBottom 2
WINDOW 3 32 56 VTop 2
SYMATTR InstName R38
SYMATTR Value 1k
SYMBOL res -2128 -656 R90
WINDOW 0 0 56 VBottom 2
WINDOW 3 32 56 VTop 2
SYMATTR InstName R39
SYMATTR Value 100
SYMBOL res -2192 -576 R90
WINDOW 0 0 56 VBottom 2
WINDOW 3 32 56 VTop 2
SYMATTR InstName R40
SYMATTR Value 10k
SYMBOL diode -2160 -544 R270
WINDOW 0 32 32 VTop 2
WINDOW 3 0 32 VBottom 2
SYMATTR InstName D5
SYMATTR Value 1N4148
SYMBOL cap -3040 -432 R0
SYMATTR InstName C49
SYMATTR Value 10Ą
SYMBOL res -2848 -976 R180
WINDOW 0 -38 78 Left 2
WINDOW 3 -36 51 Left 2
SYMATTR InstName R41
SYMATTR Value 100k
SYMBOL Comparators\\LTC1841 -2672 -1216 M180
SYMATTR InstName U8
SYMBOL Comparators\\LTC1841 -2688 -976 M180
SYMATTR InstName U9
SYMBOL Comparators\\LTC1841 -2688 -720 M180
SYMATTR InstName U10
SYMBOL Comparators\\LTC1841 -2688 -480 M180
SYMATTR InstName U11
SYMBOL TPS1HB08B-Q1_TRANS -2496 128 R0
SYMATTR InstName U4
SYMBOL res 208 176 R0
SYMATTR InstName RLOAD
SYMATTR Value 100k
SYMBOL res 976 96 R0
SYMATTR InstName R3
SYMATTR Value 15k
SYMBOL res 976 16 R0
SYMATTR InstName R1
SYMATTR Value 1k
SYMBOL res 1056 128 R0
SYMATTR InstName R7
SYMATTR Value 15k
SYMBOL res 1648 336 R0
SYMATTR InstName R9
SYMATTR Value 15k
SYMBOL res 2400 224 R0
SYMATTR InstName R4
SYMATTR Value 1k
SYMBOL res 1424 352 R0
SYMATTR InstName R211
SYMATTR Value 100k
SYMBOL res 1344 352 R0
SYMATTR InstName R210
SYMATTR Value 100k
SYMBOL res 1264 352 R0
SYMATTR InstName R209
SYMATTR Value 100k
SYMBOL res 2224 176 R0
SYMATTR InstName R206
SYMATTR Value 100k
SYMBOL res 2304 176 R0
SYMATTR InstName R207
SYMATTR Value 100k
SYMBOL res 1200 352 R0
SYMATTR InstName R208
SYMATTR Value 100k
SYMBOL res 1552 336 R0
SYMATTR InstName R5
SYMATTR Value 15k
SYMBOL PowerProducts\\LT8612 3632 176 R0
SYMATTR InstName U2
SYMBOL res 3216 -32 R0
SYMATTR InstName R11
SYMATTR Value 2k
SYMBOL res 3216 -112 R0
SYMATTR InstName R10
SYMATTR Value 47k
SYMBOL res 3296 400 R0
SYMATTR InstName R55
SYMATTR Value 110k
SYMBOL cap 3184 416 R0
SYMATTR InstName C4
SYMATTR Value 0.47Ą
SYMBOL res 3040 224 R0
SYMATTR InstName R56
SYMATTR Value 100k
SYMBOL cap 4080 -16 R0
SYMATTR InstName C5
SYMATTR Value 100n
SYMBOL cap 3840 192 R0
SYMATTR InstName C13
SYMATTR Value 100n
SYMBOL res 4112 352 R0
SYMATTR InstName R13
SYMATTR Value 196k
SYMBOL res 4112 432 R0
SYMATTR InstName R14
SYMATTR Value 10k
SYMBOL cap 2672 240 R0
SYMATTR InstName C7
SYMATTR Value 220n
SYMBOL cap 4032 368 R0
SYMATTR InstName C14
SYMATTR Value 10p
SYMBOL ind 4176 288 R270
WINDOW 0 32 56 VTop 2
WINDOW 3 5 56 VBottom 2
SYMATTR InstName L1
SYMATTR Value 35Ą
SYMBOL cap 4416 320 R0
SYMATTR InstName C15
SYMATTR Value 47Ą
SYMBOL cap 4512 320 R0
SYMATTR InstName C16
SYMATTR Value 47Ą
SYMBOL cap 368 -1216 R0
WINDOW 0 27 16 Left 2
SYMATTR InstName C19
SYMATTR Value 100Ą
SYMBOL cap 464 -1216 R0
WINDOW 0 37 14 Left 2
SYMATTR InstName C20
SYMATTR Value 100Ą
SYMBOL cap 544 -1216 R0
WINDOW 0 25 11 Left 2
SYMATTR InstName C21
SYMATTR Value 100Ą
SYMBOL res 464 -1312 R0
SYMATTR InstName R64
SYMATTR Value 10
SYMBOL diode 464 -1360 R0
SYMATTR InstName D1
SYMATTR Value 1N4148
SYMBOL res 704 -1232 R0
SYMATTR InstName R65
SYMATTR Value 10k
SYMBOL res 704 -1152 R0
SYMATTR InstName R66
SYMATTR Value 10k
SYMBOL res 704 -1072 R0
SYMATTR InstName R67
SYMATTR Value 10k
SYMBOL res 704 -992 R0
SYMATTR InstName R68
SYMATTR Value 10k
SYMBOL res 704 -912 R0
SYMATTR InstName R69
SYMATTR Value 3k
SYMBOL res 1664 -1136 R90
WINDOW 0 0 56 VBottom 2
WINDOW 3 32 56 VTop 2
SYMATTR InstName R70
SYMATTR Value 10k
SYMBOL res 1536 -1024 R180
WINDOW 0 36 76 Left 2
WINDOW 3 36 40 Left 2
SYMATTR InstName R71
SYMATTR Value 10k
SYMBOL cap 1456 -1136 R90
WINDOW 0 0 32 VBottom 2
WINDOW 3 32 32 VTop 2
SYMATTR InstName C22
SYMATTR Value 10Ą
SYMBOL res 1296 -1136 R0
SYMATTR InstName R72
SYMATTR Value 3k
SYMBOL cap 1552 -832 R0
SYMATTR InstName C23
SYMATTR Value 10Ą
SYMBOL res 1584 -928 R90
WINDOW 0 48 98 VBottom 2
WINDOW 3 22 49 VTop 2
SYMATTR InstName R73
SYMATTR Value 1k
SYMBOL res 1088 -720 R90
WINDOW 0 0 56 VBottom 2
WINDOW 3 32 56 VTop 2
SYMATTR InstName R74
SYMATTR Value 100k
SYMBOL res 1152 -704 R180
WINDOW 0 36 76 Left 2
WINDOW 3 36 40 Left 2
SYMATTR InstName R75
SYMATTR Value 100k
SYMBOL res 960 -704 R180
WINDOW 0 36 76 Left 2
WINDOW 3 36 40 Left 2
SYMATTR InstName R76
SYMATTR Value 100k
SYMBOL cap 1456 -624 R0
SYMATTR InstName C28
SYMATTR Value 10Ą
SYMBOL cap 1344 -624 R0
SYMATTR InstName C29
SYMATTR Value 10Ą
SYMBOL res 1328 -640 R90
WINDOW 0 0 56 VBottom 2
WINDOW 3 32 56 VTop 2
SYMATTR InstName R77
SYMATTR Value 1k
SYMBOL res 2304 -576 R90
WINDOW 0 0 56 VBottom 2
WINDOW 3 32 56 VTop 2
SYMATTR InstName R78
SYMATTR Value 100
SYMBOL res 2240 -496 R90
WINDOW 0 0 56 VBottom 2
WINDOW 3 32 56 VTop 2
SYMATTR InstName R79
SYMATTR Value 10k
SYMBOL diode 2272 -464 R270
WINDOW 0 32 32 VTop 2
WINDOW 3 0 32 VBottom 2
SYMATTR InstName D2
SYMATTR Value 1N4148
SYMBOL cap 1392 -352 R0
SYMATTR InstName C30
SYMATTR Value 10Ą
SYMBOL res 1584 -896 R180
WINDOW 0 -38 78 Left 2
WINDOW 3 -36 51 Left 2
SYMATTR InstName R80
SYMATTR Value 100k
SYMBOL Comparators\\LTC1841 1760 -1136 M180
SYMATTR InstName U6
SYMBOL Comparators\\LTC1841 1744 -896 M180
SYMATTR InstName U7
SYMBOL Comparators\\LTC1841 1744 -640 M180
SYMATTR InstName U12
SYMBOL Comparators\\LTC1841 1744 -400 M180
SYMATTR InstName U13
SYMBOL TPS1HB08B-Q1_TRANS 1936 208 R0
SYMATTR InstName U14
SYMBOL res 4640 256 R0
SYMATTR InstName RLOAD1
SYMATTR Value 100k
SYMBOL res 928 96 R90
WINDOW 0 0 56 VBottom 2
WINDOW 3 32 56 VTop 2
SYMATTR InstName R2
SYMATTR Value 1k
SYMBOL voltage -3408 -1504 R0
WINDOW 123 0 0 Left 0
WINDOW 39 0 0 Left 0
SYMATTR InstName V1
SYMATTR Value 28V
SYMBOL voltage -3232 -1504 R0
WINDOW 3 37 87 Left 2
WINDOW 123 0 0 Left 0
WINDOW 39 0 0 Left 0
SYMATTR Value 3.3V
SYMATTR InstName V2
SYMBOL voltage -3056 -1504 R0
WINDOW 3 37 87 Left 2
WINDOW 123 0 0 Left 0
WINDOW 39 0 0 Left 0
SYMATTR Value PULSE(0 3.3 0 0 0 0 .5ms)
SYMATTR InstName V3
SYMBOL res 5184 -16 R0
SYMATTR InstName R6
SYMATTR Value 15k
SYMBOL res 5184 -96 R0
SYMATTR InstName R8
SYMATTR Value 1k
SYMBOL res 5264 16 R0
SYMATTR InstName R12
SYMATTR Value 15k
SYMBOL res 5856 224 R0
SYMATTR InstName R15
SYMATTR Value 15k
SYMBOL res 6608 112 R0
SYMATTR InstName R20
SYMATTR Value 1k
SYMBOL res 5632 240 R0
SYMATTR InstName R22
SYMATTR Value 100k
SYMBOL res 5552 240 R0
SYMATTR InstName R42
SYMATTR Value 100k
SYMBOL res 5472 240 R0
SYMATTR InstName R43
SYMATTR Value 100k
SYMBOL res 6432 64 R0
SYMATTR InstName R44
SYMATTR Value 100k
SYMBOL res 6512 64 R0
SYMATTR InstName R45
SYMATTR Value 100k
SYMBOL res 5408 240 R0
SYMATTR InstName R46
SYMATTR Value 100k
SYMBOL res 5760 224 R0
SYMATTR InstName R47
SYMATTR Value 15k
SYMBOL PowerProducts\\LT8612 7840 64 R0
SYMATTR InstName U5
SYMBOL res 7424 -144 R0
SYMATTR InstName R48
SYMATTR Value 2k
SYMBOL res 7424 -224 R0
SYMATTR InstName R57
SYMATTR Value 47k
SYMBOL res 7504 288 R0
SYMATTR InstName R58
SYMATTR Value 110k
SYMBOL cap 7392 304 R0
SYMATTR InstName C6
SYMATTR Value 0.47Ą
SYMBOL res 7248 112 R0
SYMATTR InstName R59
SYMATTR Value 100k
SYMBOL cap 8288 -128 R0
SYMATTR InstName C8
SYMATTR Value 100n
SYMBOL cap 8048 80 R0
SYMATTR InstName C9
SYMATTR Value 100n
SYMBOL res 8320 240 R0
SYMATTR InstName R60
SYMATTR Value 20.8k
SYMBOL res 8320 320 R0
SYMATTR InstName R61
SYMATTR Value 5k
SYMBOL cap 6880 128 R0
SYMATTR InstName C10
SYMATTR Value 220n
SYMBOL cap 8240 256 R0
SYMATTR InstName C17
SYMATTR Value 10p
SYMBOL ind 8384 176 R270
WINDOW 0 32 56 VTop 2
WINDOW 3 5 56 VBottom 2
SYMATTR InstName L3
SYMATTR Value 9.05Ą
SYMBOL cap 8624 208 R0
SYMATTR InstName C18
SYMATTR Value 47Ą
SYMBOL cap 8720 208 R0
SYMATTR InstName C31
SYMATTR Value 47Ą
SYMBOL cap 4576 -1328 R0
WINDOW 0 27 16 Left 2
SYMATTR InstName C32
SYMATTR Value 100Ą
SYMBOL cap 4672 -1328 R0
WINDOW 0 37 14 Left 2
SYMATTR InstName C33
SYMATTR Value 100Ą
SYMBOL cap 4752 -1328 R0
WINDOW 0 25 11 Left 2
SYMATTR InstName C34
SYMATTR Value 100Ą
SYMBOL res 4672 -1424 R0
SYMATTR InstName R62
SYMATTR Value 10
SYMBOL diode 4672 -1472 R0
SYMATTR InstName D3
SYMATTR Value 1N4148
SYMBOL res 4912 -1344 R0
SYMATTR InstName R63
SYMATTR Value 10k
SYMBOL res 4912 -1264 R0
SYMATTR InstName R81
SYMATTR Value 10k
SYMBOL res 4912 -1184 R0
SYMATTR InstName R82