Version 4
SHEET 1 3140 1076
WIRE -2944 -976 -3280 -976
WIRE -2944 -896 -2944 -976
WIRE -3280 -880 -3280 -976
WIRE -2944 -752 -3040 -752
WIRE -2864 -752 -2944 -752
WIRE -2704 -752 -2864 -752
WIRE -2288 -752 -2704 -752
WIRE -1504 -752 -2288 -752
WIRE -1424 -736 -1664 -736
WIRE -1344 -736 -1424 -736
WIRE -1344 -720 -1344 -736
WIRE -1664 -704 -1664 -736
WIRE -2944 -688 -3040 -688
WIRE -2864 -688 -2944 -688
WIRE -1696 -688 -2544 -688
WIRE -2944 -672 -2944 -688
WIRE -2480 -672 -2704 -672
WIRE -1568 -672 -1632 -672
WIRE -2112 -656 -2208 -656
WIRE -2032 -656 -2112 -656
WIRE -1904 -656 -1968 -656
WIRE -1856 -656 -1904 -656
WIRE -1696 -656 -1776 -656
WIRE -2576 -592 -2704 -592
WIRE -1664 -592 -1664 -640
WIRE -1504 -592 -1504 -752
WIRE -1504 -592 -1664 -592
WIRE -1568 -544 -1568 -672
WIRE -1568 -544 -1936 -544
WIRE -1504 -528 -1504 -592
WIRE -1504 -528 -1856 -528
WIRE -2512 -512 -2704 -512
WIRE -2112 -512 -2112 -576
WIRE -1424 -496 -1424 -736
WIRE -1424 -496 -1680 -496
WIRE -1680 -464 -1680 -496
WIRE -1936 -448 -1936 -544
WIRE -1712 -448 -1856 -448
WIRE -2544 -432 -2544 -688
WIRE -2544 -432 -2704 -432
WIRE -1568 -432 -1648 -432
WIRE -2512 -416 -2512 -512
WIRE -1712 -416 -2512 -416
WIRE -1856 -368 -1856 -448
WIRE -1680 -368 -1680 -400
WIRE -1504 -368 -1504 -528
WIRE -1504 -368 -1680 -368
WIRE -2480 -336 -2480 -672
WIRE -2288 -336 -2288 -752
WIRE -1568 -272 -1568 -432
WIRE -1568 -272 -2240 -272
WIRE -2480 -240 -2480 -256
WIRE -2432 -240 -2480 -240
WIRE -2288 -240 -2288 -256
WIRE -2288 -240 -2352 -240
WIRE -1568 -240 -2288 -240
WIRE -1424 -208 -1424 -496
WIRE -1424 -208 -1680 -208
WIRE -2480 -192 -2480 -240
WIRE -1712 -192 -2480 -192
WIRE -1568 -176 -1568 -240
WIRE -1568 -176 -1648 -176
WIRE -1072 -176 -1568 -176
WIRE -2240 -160 -2240 -272
WIRE -2192 -160 -2240 -160
WIRE -2064 -160 -2112 -160
WIRE -1952 -160 -2064 -160
WIRE -1824 -160 -1952 -160
WIRE -1712 -160 -1824 -160
WIRE -1680 -112 -1680 -144
WIRE -1504 -112 -1504 -368
WIRE -1504 -112 -1680 -112
WIRE -1216 -96 -1296 -96
WIRE -1072 -96 -1072 -176
WIRE -1072 -96 -1136 -96
WIRE -288 -64 -560 -64
WIRE -1824 -48 -1824 -160
WIRE -1296 -48 -1296 -96
WIRE -1296 -48 -1824 -48
WIRE -1568 -16 -1568 -176
WIRE -1568 -16 -1856 -16
WIRE -1296 -16 -1296 -48
WIRE -1280 -16 -1296 -16
WIRE -1152 -16 -1200 -16
WIRE -1072 -16 -1072 -96
WIRE -1072 -16 -1088 -16
WIRE -1424 0 -1424 -208
WIRE -1424 0 -1680 0
WIRE -560 16 -656 16
WIRE -1680 32 -1680 0
WIRE -1856 48 -1856 -16
WIRE -1712 48 -1856 48
WIRE -1424 64 -1648 64
WIRE -2576 80 -2576 -592
WIRE -2016 80 -2576 80
WIRE -1712 80 -2016 80
WIRE -1504 96 -1504 -112
WIRE -1504 96 -1680 96
WIRE -2016 112 -2016 80
FLAG -2704 -352 0
FLAG -1904 -576 0
FLAG -2112 -512 0
FLAG -1856 -304 0
FLAG -2064 -96 0
FLAG -1952 -96 0
FLAG -2016 176 0
FLAG -1424 64 !WD_EN_OBC
FLAG -2944 -672 0
FLAG -1344 -720 0
FLAG -3280 -800 0
FLAG -560 96 0
FLAG -288 16 0
FLAG -2208 -656 WD_IN
FLAG -656 16 !WD_EN_OBC
SYMBOL cap -3056 -752 R0
WINDOW 0 27 16 Left 2
SYMATTR InstName C4
SYMATTR Value 100Ą
SYMBOL cap -2960 -752 R0
WINDOW 0 37 14 Left 2
SYMATTR InstName C5
SYMATTR Value 100Ą
SYMBOL cap -2880 -752 R0
WINDOW 0 25 11 Left 2
SYMATTR InstName C6
SYMATTR Value 100Ą
SYMBOL res -2960 -848 R0
SYMATTR InstName R49
SYMATTR Value 10
SYMBOL diode -2960 -896 R0
SYMATTR InstName D1
SYMATTR Value 1N4148
SYMBOL res -2720 -768 R0
SYMATTR InstName R50
SYMATTR Value 10k
SYMBOL res -2720 -688 R0
SYMATTR InstName R51
SYMATTR Value 10k
SYMBOL res -2720 -608 R0
SYMATTR InstName R52
SYMATTR Value 10k
SYMBOL res -2720 -528 R0
SYMATTR InstName R53
SYMATTR Value 10k
SYMBOL res -2720 -448 R0
SYMATTR InstName R54
SYMATTR Value 3k
SYMBOL res -1760 -672 R90
WINDOW 0 0 56 VBottom 2
WINDOW 3 32 56 VTop 2
SYMATTR InstName R57
SYMATTR Value 10k
SYMBOL res -1888 -560 R180
WINDOW 0 36 76 Left 2
WINDOW 3 36 40 Left 2
SYMATTR InstName R56
SYMATTR Value 10k
SYMBOL cap -1968 -672 R90
WINDOW 0 0 32 VBottom 2
WINDOW 3 32 32 VTop 2
SYMATTR InstName C45
SYMATTR Value 10Ą
SYMBOL res -2128 -672 R0
SYMATTR InstName R55
SYMATTR Value 3k
SYMBOL cap -1872 -368 R0
SYMATTR InstName C7
SYMATTR Value 10Ą
SYMBOL res -1840 -464 R90
WINDOW 0 48 98 VBottom 2
WINDOW 3 22 49 VTop 2
SYMATTR InstName R58
SYMATTR Value 1k
SYMBOL res -2336 -256 R90
WINDOW 0 0 56 VBottom 2
WINDOW 3 32 56 VTop 2
SYMATTR InstName R64
SYMATTR Value 100k
SYMBOL res -2272 -240 R180
WINDOW 0 36 76 Left 2
WINDOW 3 36 40 Left 2
SYMATTR InstName R65
SYMATTR Value 100k
SYMBOL res -2464 -240 R180
WINDOW 0 36 76 Left 2
WINDOW 3 36 40 Left 2
SYMATTR InstName R61
SYMATTR Value 100k
SYMBOL cap -1968 -160 R0
SYMATTR InstName C8
SYMATTR Value 10Ą
SYMBOL cap -2080 -160 R0
SYMATTR InstName C9
SYMATTR Value 10Ą
SYMBOL res -2096 -176 R90
WINDOW 0 0 56 VBottom 2
WINDOW 3 32 56 VTop 2
SYMATTR InstName R60
SYMATTR Value 1k
SYMBOL res -1120 -112 R90
WINDOW 0 0 56 VBottom 2
WINDOW 3 32 56 VTop 2
SYMATTR InstName R63
SYMATTR Value 100
SYMBOL res -1184 -32 R90
WINDOW 0 0 56 VBottom 2
WINDOW 3 32 56 VTop 2
SYMATTR InstName R62
SYMATTR Value 10k
SYMBOL diode -1152 0 R270
WINDOW 0 32 32 VTop 2
WINDOW 3 0 32 VBottom 2
SYMATTR InstName D3
SYMATTR Value 1N4148
SYMBOL cap -2032 112 R0
SYMATTR InstName C10
SYMATTR Value 10Ą
SYMBOL voltage -3280 -896 R0
SYMATTR InstName V1
SYMATTR Value 3.3V
SYMBOL res -1840 -432 R180
WINDOW 0 -38 78 Left 2
WINDOW 3 -36 51 Left 2
SYMATTR InstName R59
SYMATTR Value 100k
SYMBOL voltage -288 -80 R0
SYMATTR InstName V2
SYMATTR Value 28V
SYMBOL res -576 -80 R0
SYMATTR InstName R1
SYMATTR Value 56.2k
SYMBOL res -576 0 R0
SYMATTR InstName R2
SYMATTR Value 10k
SYMBOL Comparators\\LTC1841 -1664 -672 M180
SYMATTR InstName U5
SYMBOL Comparators\\LTC1841 -1680 -432 M180
SYMATTR InstName U1
SYMBOL Comparators\\LTC1841 -1680 -176 M180
SYMATTR InstName U2
SYMBOL Comparators\\LTC1841 -1680 64 M180
SYMATTR InstName U3
TEXT -3160 -1256 Left 4 ;SCALES EPS REV F Simulation Model
TEXT -2440 -856 Left 4 ;OBC WatchDog Circuit
TEXT -2856 -1032 Left 2 !.tran 0 100ms 0 500u
TEXT -1032 -120 Left 2 ;Original was 4.7Meg for R63
TEXT -1120 72 Left 2 ;100k for R62
